/*--------------------------------*- C++ -*----------------------------------*\
| =========                 |                                                 |
| \\      /  F ield         | OpenFOAM: The Open Source CFD Toolbox           |
|  \\    /   O peration     | Version:  v1706                                 |
|   \\  /    A nd           | Web:      www.OpenFOAM.com                      |
|    \\/     M anipulation  |                                                 |
\*---------------------------------------------------------------------------*/
FoamFile
{
    version     2.0;
    format      ascii;
    class       dictionary;
    location    "constant";
    object      transportProperties;
}
// * * * * * * * * * * * * * * * * * * * * * * * * * * * * * * * * * * * * * //

rarefiedParameters
{
    computeFieldAndBoundaries      false;
    computeMfpBoundaries           true;
    
    mfpModel                       variableHardSphere;
    writeMfpSpecies                off;
    writeMfpMixture                on;
    
    characteristicLength           5.0; //Length of the cyllinder
    writeKn_overall                on;
    
    writeKnGLL                     on;
    writeKnGLL_components          on;   
}


transportModels
{
    viscosityAndThermalConductivityModels   "see thermophysicalProperties"; //????
    mixingRule                     ArmalySutton;
    writeViscositySpecies          off;
    writeViscosityMixture          on;
    writeThermalConducSpecies      off;
    writeThermalConducMixture      on;
    
    writeWallHeatFlux              on;
    
    multiSpeciesTransport          SCEBD;
    binaryDiffusionModel           collisionDataModel;
    
    
    //- Parameters for transport modelling
    correctedArmalySutton          on;
    
    diffusionModelParameters
    {
        addPressureGradientTerm        on;
        addTemperatureGradientTerm     on;
        
        LewisNumber                    1.4; // COMO DETERMINAR???
        
        collisionDataModel    "WrightEarthMarsVenus";  //ACHO QUE ESSE AQUI É O CONSIDERADO        
        
        constantBinaryDiffusionModelCoefficients
        {
            allSpecies                 1.0e-5;
        }
    }
}    
    
    
collisionData
{
    tabulatedInteractions
    { 
        // NASA-TM-101528 (Gupta, Yos, Thompson: Feb. 1989)
        // Document ID: 19890011822
        // A review of reaction rates and thermodynamic and transport 
        // properties for the 11-species air model for chemical and thermal
        // nonequilibrium calculations to 30000 K
        Gupta1989D
        {
            // Table VI
            Dbar
            {
                N2_N2   (0 0.0112 1.6182 -11.3091);
                N2_O2   (0 0.0465 0.9271 -8.1137);
                O2_O2   (0 0.0410 1.0023 -8.3597);
                N_N2    (0 0.0195 1.4880 -10.3654);
                N_O2    (0 0.0179 1.4848 -10.2810);
                N_N     (0 0.0033 1.5572 -11.1616);
                O_N2    (0 0.0140 1.5824 -10.8819);
                O_O2    (0 0.0226 1.3700 -9.6631);
                O_N     (0 -0.0048 1.9195 -11.9261);
                O_O     (0 0.0034 1.5572 -11.1729);
                NO_N2   (0 0.0291 1.2676 -9.6878);
                NO_O2   (0 0.0438 0.9647 -8.2380);
                NO_N    (0 0.0185 1.4882 -10.3301);
                NO_O    (0 0.0179 1.4848 -10.3155);
                NO_NO   (0 0.0364 1.1176 -8.9695);
                
                NO+_N2  (0 0 1.9 -13.3343);
                NO+_O2  (0 0 1.9001 -13.3677);
                NO+_N   (0 0 1.8999 -13.1254);
                NO+_O   (0 0 1.9 -13.1701);
                NO+_NO  (0 0.0047 1.5552 -11.3713);
                NO+_NO+ (-0.1251 3.5135 -29.7280 74.1550);
                e-_N2   (-0.1147 2.8945 -23.0085 65.9815);
                e-_O2   (-0.0241 0.3464 0.1136 -1.3848);  // T = 1000-9000 K
              //e-_O2   (-0.0029 0.0856 0.6655 -0.8205); // T = 9000-30,000 K
                e-_N    (0 0 1.5 -2.9987);
                e-_O    (0.0581 -1.5975 15.4508 -40.7370);
                e-_NO   (0.2202 -5.2261 42.0630 -106.0937);  // T = 1000-8000 K
              //e-_NO   (-0.2871 -8.3759 82.8802 -267.0227); // T = 8000-30,000 K
                e-_NO+  (-0.1251 3.5134 -29.7272 79.2610);
                e-_e-   (-0.1251 3.5136 -29.7290 79.6126);
                N+_N2   (0 0 1.9 -13.1144);
                N+_O2   (0 0 1.9 -13.1357);
                N+_N    (0 0.0033 1.5572 -11.1616);
                N+_O    (0 0 1.9 -13.0028);
                N+_NO   (0 0 1.8999 -13.1254);
                N+_NO+  (-0.1251 3.5135 -29.7285 74.3825);
                N+_e-   (-0.1251 3.5134 -29.7272 79.2611);
                N+_N+   (-0.1251 3.5134 -29.7274 74.5342);
                O+_N2   (0 0 1.9 -13.1578);
                O+_O2   (0 0 1.9 -13.1810);
                O+_N    (0 0 1.9 -13.0028);
                O+_O    (0 0.0034 1.5572 -11.1729);
                O+_NO   (0 0 1.9 -13.1701);
                O+_NO+  (-0.1251 3.5133 -29.7268 74.3330);
                O+_e-   (-0.1251 3.5134 -29.7274 79.2616);
                O+_N+   (-0.1251 3.5134 -29.7275 74.5023);
                O+_O+   (-0.1251 3.5134 -29.7277 74.4687);
                N2+_N2  (0 0 1.9 -13.3173);
                N2+_O2  (0 0 1.9 -13.3495);
                N2+_N   (0 0 1.9 -13.1144);
                N2+_O   (0 0 1.9 -13.1578);
                N2+_NO  (0 0 1.9 -13.3343);
                N2+_NO+ (-0.1251 3.5134 -29.7279 74.1721);
                N2+_e-  (-0.1251 3.5134 -29.7273 79.2613);
                N2+_N+  (-0.1251 3.5135 -29.7288 74.3947);
                N2+_O+  (-0.1251 3.5133 -29.7269 74.3453);
                N2+_N2+ (-0.1251 3.5135 -29.7282 74.1899);
                O2+_N2  (0 0 1.9 -13.3173);
                O2+_O2  (0 0 1.9 -13.3495);
                O2+_N   (0 0 1.9 -13.1144);
                O2+_O   (0 0 1.9 -13.1578);
                O2+_NO  (0 0 1.9 -13.3343);
                O2+_NO+ (-0.1251 3.5134 -29.7279 74.1721);
                O2+_e-  (-0.1251 3.5134 -29.7273 79.2613);
                O2+_N+  (-0.1251 3.5135 -29.7288 74.3947);
                O2+_O+  (-0.1251 3.5133 -29.7269 74.3453);
                O2+_N2+ (-0.1251 3.5135 -29.7282 74.1899);
                O2+_O2+ (-0.1251 3.5135 -29.7282 74.1899);
            }
        }
        
        // NASA-RP-1232 (Gupta, Yos, Thompson, Lee: Aug. 1990)
        // Document ID: 19900017748
        // A review of reaction rates and thermodynamic and transport 
        // properties of an 11-species air model for chemical and thermal
        // nonequilibrium calculations to 30000 K
        Gupta1990D
        {
            // Table VII
            Dbar
            {
                N2_N2   (0 0.0112 1.6182 -11.3091);
                N2_O2   (0 0.0465 0.9271 -8.1137);
                O2_O2   (0 0.0410 1.0023 -8.3597);
                N_N2    (0 0.0195 1.4880 -10.3654);
                N_O2    (0 0.0179 1.4848 -10.2810);
                N_N     (0 0.0033 1.5572 -11.1616);
                O_N2    (0 0.0140 1.5824 -10.8819);
                O_O2    (0 0.0226 1.3700 -9.6631);
                O_N     (0 -0.0048 1.9195 -11.9261);
                O_O     (0 0.0034 1.5572 -11.1729);
                NO_N2   (0 0.0291 1.2676 -9.6878);
                NO_O2   (0 0.0438 0.9647 -8.2380);
                NO_N    (0 0.0185 1.4882 -10.3301);
                NO_O    (0 0.0179 1.4848 -10.3155);
                NO_NO   (0 0.0364 1.1176 -8.9695);
                
                NO+_N2  (0 0 1.9000 -13.3343);
                NO+_O2  (0 0 1.9001 -13.3677);
                NO+_N   (0 0 1.8999 -13.1254);
                NO+_O   (0 0 1.9000 -13.1701);
                NO+_NO  (0 0.0047 1.5552 -11.3713);
                NO+_NO+ (0 0 3.5000 -30.3210);
                e-_N2   (-0.1147 2.8945 -23.0085 65.9815);
                e-_O2   (-0.0241 0.3464 0.1136 -1.3848);  // T = 1000-9000 K
              //e-_O2   (-0.0029 0.0856 0.6655 -0.8205); // T = 9000-30,000 K
                e-_N    (0 0 1.5000 -2.9987);
                e-_O    (0.0581 -1.5975 15.4508 -40.7370);
                e-_NO   (0.2202 -5.2261 42.0630 -106.0937);  // T = 1000-8000 K
              //e-_NO   (-0.2871 -8.3759 82.8802 -267.0227); // T = 8000-30,000 K
                e-_NO+  (0 0 3.5000 -25.2128);
                e-_e-   (0 0 3.5000 -24.8662);
                N+_N2   (0 0 1.9000 -13.1144);
                N+_O2   (0 0 1.9000 -13.1357);
                N+_N    (0 0.0033 1.5572 -11.1616);
                N+_O    (0 0 1.9000 -13.0028);
                N+_NO   (0 0 1.8999 -13.1254);
                N+_NO+  (0 0 3.5000 -30.0951);
                N+_e-   (0 0 3.5000 -25.2128);
                N+_N+   (0 0 3.5000 -29.9401);
                O+_N2   (0 0 1.9000 -13.1578);
                O+_O2   (0 0 1.9000 -13.1810);
                O+_N    (0 0 1.9000 -13.0028);
                O+_O    (0 0.0034 1.5572 -11.1729);
                O+_NO   (0 0 1.9000 -13.1701);
                O+_NO+  (0 0 3.5000 -30.1395);
                O+_e-   (0 0 3.5000 -25.2128);
                O+_N+   (0 0 3.5000 -29.9722);
                O+_O+   (0 0 3.5000 -30.0066);
                N2+_N2  (0 0 1.9000 -13.3173);
                N2+_O2  (0 0 1.9000 -13.3495);
                N2+_N   (0 0 1.9000 -13.1144);
                N2+_O   (0 0 1.9000 -13.1578);
                N2+_NO  (0 0 1.9000 -13.3343);
                N2+_NO+ (0 0 3.5000 -30.3036);
                N2+_e-  (0 0 3.5000 -25.2128);
                N2+_N+  (0 0 3.5000 -30.0839);
                N2+_O+  (0 0 3.5000 -30.1273);
                N2+_N2+ (0 0 3.5000 -30.2867);
                O2+_N2  (0 0 1.9 -13.3173);
                O2+_O2  (0 0 1.9 -13.3495);
                O2+_N   (0 0 1.9 -13.1144);
                O2+_O   (0 0 1.9 -13.1578);
                O2+_NO  (0 0 1.9 -13.3343);
                O2+_NO+ (0 0 3.5000 -30.3036);
                O2+_e-  (0 0 3.5000 -25.2128);
                O2+_N+  (0 0 3.5000 -30.0839);
                O2+_O+  (0 0 3.5000 -30.1273);
                O2+_N2+ (0 0 3.5000 -30.2867);
                O2+_O2+ (0 0 3.5000 -30.2867);
            }
        }
        
        // NASA-TM-101528 (Gupta, Yos, Thompson: Feb. 1989)
        // Document ID: 19890011822
        // A review of reaction rates and thermodynamic and transport 
        // properties for the 11-species air model for chemical and thermal
        // nonequilibrium calculations to 30000 K
        Gupta1989O
        {
            // Table VII
            Omega11
            {
                N2_N2   (0 -0.0112 -0.1182 4.8464);
                N2_O2   (0 -0.0465 0.5729 1.6185);
                O2_O2   (0 -0.0410 0.4977 1.8302);
                N2_N    (0 -0.0194 0.0119 4.1055);
                O2_N    (0 -0.0179 0.0152 3.9996);
                N_N     (0 -0.0033 -0.0572 5.0452);
                N2_O    (0 -0.0139 -0.0825 4.5785);
                O2_O    (0 -0.0226 0.1300 3.3363);
                N_O     (0 0.0048 -0.4195 5.7774);
                O_O     (0 -0.0034 -0.0572 4.9901);
                N2_NO   (0 -0.0291 0.2324 3.2082);
                O2_NO   (0 -0.0438 0.5352 1.7252);
                NO_N    (0 -0.0185 0.0118 4.0590);
                NO_O    (0 -0.0179 0.0152 3.9996);
                NO_NO   (0 -0.0364 0.3825 2.4718);
                
                NO+_N2	(0 0 -0.4000 6.8543);
                NO+_O2  (0 0 -0.4000 6.8543);
                NO+_N		(0 0 -0.4000 6.8543);
                NO+_O		(0 0 -0.4000 6.8543);
                NO+_NO  (0 -0.0047 -0.0551 4.8737);
                NO+_NO+	(0.1251 -3.5134 31.2277 -80.6515);
                e-_N2		(0.1147 -2.8945 24.5080 -67.3691);
                e-_O2   (0.0241 -0.3467 1.3887 -0.0110); // T = 1000-9000	K	
              //e-_O2		(0.0025 -0.0742 0.7235 -0.2116); // T = 9000-30000 K
                e-_N		(0 0 0 1.6094);
                e-_O    (0.0164 -0.2431 1.1231 -1.5561); // T = 1000-9000	K	
              //e-_O		(-0.2027 5.6428 -51.5646 155.6091); // T = 9000-30,000 K
                e-_NO   (-0.2202 5.2265 -40.5659 104.7126); // T = 1000-8000 K		
              //e-_NO		(-0.2871 8.3757 -81.3787 265.6292); // T = 8000-30,000 K
                e-_NO+	(0.1251 -3.5134 31.2277 -80.6515);
                e-_e-		(0.1251 -3.5134 31.2277 -80.6515);
                N+_N2		(0 0 -0.4000 6.8543);
                N+_O2		(0 0 -0.4000 6.8543);
                N+_N		(0 -0.0033 -0.0572 5.0452);
                N+_O		(0 0 -0.4000 6.8543);
                N+_NO		(0 0 -0.4000 6.8543);
                N+_NO+	(0.1251 -3.5134 31.2277 -80.6515);
                N+_e-		(0.1251 -3.5134 31.2277 -80.6515);
                N+_N+		(0.1251 -3.5134 31.2277 -80.6515);
                O+_N2		(0 0 -0.4000 6.8543);
                O+_O2		(0 0 -0.4000 6.8543);
                O+_N		(0 0 -0.4000 6.8543);
                O+_O		(0 -0.0034 -0.0572 4.9901);
                O+_NO		(0 0 -0.4000 6.8543);
                O+_NO+	(0.1251 -3.5134 31.2277 -80.6515);
                O+_e-		(0.1251 -3.5134 31.2277 -80.6515);
                O+_N+		(0.1251 -3.5134 31.2277 -80.6515);
                O+_O+		(0.1251 -3.5134 31.2277 -80.6515);
                N2+_N2	(0 0 -0.4000 6.8543);
                N2+_O2	(0 0 -0.4000 6.8543);
                N2+_N		(0 0 -0.4000 6.8543);
                N2+_O		(0 0 -0.4000 6.8543);
                N2+_NO	(0 0 -0.4000 6.8543);
                N2+_NO+	(0.1251 -3.5134 31.2277 -80.6515);
                N2+_e-	(0.1251 -3.5134 31.2277 -80.6515);
                N2+_N+	(0.125 -3.5134 31.2277 -80.6515);
                N2+_O+	(0.1251 -3.5134 31.2277 -80.6515);
                N2+_N2+	(0.1251 -3.5134 31.2277 -80.6515);
                O2+_N2	(0 0 -0.4000 6.8543);
                O2+_O2	(0 0 -0.4000 6.8543);
                O2+_N		(0 0 -0.4000 6.8543);
                O2+_O		(0 0 -0.4000 6.8543);
                O2+_NO	(0 0 -0.4000 6.8543);
                O2+_NO+	(0.1251 -3.5134 31.2277 -80.6515);
                O2+_e-	(0.1251 -3.5134 31.2277 -80.6515);
                O2+_N+	(0.1251 -3.5134 31.2277 -80.6515);
                O2+_O+	(0.1251 -3.5134 31.2277 -80.6515);
                O2+_N2+	(0.1251 -3.5134 31.2277 -80.6515);
                O2+_O2+	(0.1251 -3.5134 31.2277 -80.6515);
            }
        
            // Table VIII
            Omega22
            {
                N2_N2		(0 -0.0203 0.0683 4.0900);
                N2_O2		(0 -0.0558 0.7590 0.8955);
                O2_O2		(0 -0.0485 0.6475 1.2607);
                N2_N		(0 -0.0190 0.0239 4.1782);
                O2_N		(0 -0.0203 0.0730 3.8818);
                N_N		  (0 -0.0118 -0.0960 4.3252);
                N2_O		(0 -0.0169 -0.0143 4.4195);
                O2_O		(0 -0.0247 0.1783 3.2517);
                N_O		  (0 0.0065 -0.4467 6.0426);
                O_O		  (0 -0.0207 0.0780 3.5658);
                N2_NO		(0 -0.0385 0.4226 2.4507);
                O2_NO		(0 -0.0522 0.7045 1.0738);
                NO_N		(0 -0.0196 0.0478 4.0321);
                NO_O		(0 -0.0203 0.0730 3.8818);
                NO_NO		(0 -0.0453 0.5624 1.7669);
                NO+_N2	(0 0 -0.4000 6.7760);
                NO+_O2	(0 0 -0.4000 6.7760);
                NO+_N		(0 0 -0.4000 6.7760);
                NO+_O		(0 0 -0.4000 6.7760);
                NO+_NO	(0 0 -0.4000 6.7760);
                NO+_NO+	(0.1251 -3.5135 31.2281 -80.1163);
                e-_N2		(0.1147 -2.8945 24.5080 -67.3691);
                e-_O2		(0.0241 -0.3467 1.3887 -0.0110); // T = 1000-9000	K	
              //e-_O2		(0.0025 -0.0742 0.7235 -0.2116); // T = 9000-30000 K
                e-_N		(0 0 0 1.6094);
                e-_O		(0.0164 -0.2431 1.1231 -1.5561); // T = 1000-9000	K	
              //e-_O		(-0.2027 5.6428 -51.5646 155.6091); // T = 9000-30,000 K
                e-_NO		(-0.2202 5.2265 -40.5659 104.7126); // T = 1000-8000 K		
              //e-_NO		(-0.2871 8.3757 -81.3787 265.6292); // T = 8000-30,000 K
                e-_NO+	(0.1251 -3.5134 31.2274 -80.1684);
                e-_e-		(0.1251 -3.5134 31.2274 -80.1684);
                N+_N2		(0 0 -0.4000 6.7760);
                N+_O2		(0 0 -0.4000 6.7760);
                N+_N		(0 0 -0.4146 6.9078);
                N+_O		(0 0 -0.4000 6.7760);
                N+_NO		(0 0 -0.4000 6.7760);
                N+_NO+	(0.1251 -3.5135 31.2281 -80.1163);
                N+_e-		(0.1251 -3.5134 31.2274 -80.1684);
                N+_N+		(0.1251 -3.5135 31.2281 -80.1163);
                O+_N2		(0 0 -0.4000 6.7760);
                O+_O2		(0 0 -0.4000 6.7760);
                O+_N		(0 0 -0.4000 6.7760);
                O+_O		(0 0 -0.4235 6.7787);
                O+_NO		(0 0 -0.4000 6.7760);
                O+_NO+	(0.1251 -3.5135 31.2281 -80.1163);
                O+_e-		(0.1251 -3.5134 31.2274 -80.1684);
                O+_N+		(0.1251 -3.5135 31.2281 -80.1163);
                O+_O+		(0.1251 -3.5135 31.2281 -80.1163);
                N2+_N2	(0 0 -0.4000 6.7760);
                N2+_O2	(0 0 -0.4000 6.7760);
                N2+_N		(0 0 -0.4000 6.7760);
                N2+_O		(0 0 -0.4000 6.7760);
                N2+_NO	(0 0 -0.4000 6.7760);
                N2+_NO+	(0.1251 -3.5135 31.2281 -80.1163);
                N2+_e-	(0.1251 -3.5134 31.2274 -80.1684);
                N2+_N+	(0.125 -3.5135 31.2281 -80.1163);
                N2+_O+	(0.1251 -3.5135 31.2281 -80.1163);
                N2+_N2+	(0.1251 -3.5135 31.2281 -80.1163);
                O2+_N2	(0 0 -0.4000 6.7760);
                O2+_O2	(0 0 -0.4000 6.7760);
                O2+_N		(0 0 -0.4000 6.7760);
                O2+_O		(0 0 -0.4000 6.7760);
                O2+_NO	(0 0 -0.4000 6.7760);
                O2+_NO+	(0.1251 -3.5135 31.2281 -80.1163);
                O2+_e-	(0.1251 -3.5135 31.2281 -80.1163);
                O2+_N+	(0.1251 -3.5135 31.2281 -80.1163);
                O2+_O+	(0.1251 -3.5135 31.2281 -80.1163);
                O2+_N2+	(0.1251 -3.5135 31.2281 -80.1163);
                O2+_O2+	(0.1251 -3.5135 31.2281 -80.1163);
            }
        }
    
        // NASA-RP-1232 (Gupta, Yos, Thompson, Lee: Aug. 1990)
        // Document ID: 19900017748
        // A review of reaction rates and thermodynamic and transport 
        // properties of an 11-species air model for chemical and thermal
        // nonequilibrium calculations to 30000 K
        Gupta1990O
        {
            // Table VIII
            Omega11
            {
                N2_N2   (0 -0.0112 -0.1182 4.8464);
                N2_O2   (0 -0.0465 0.5729 1.6185);
                O2_O2   (0 -0.0410 0.4977 1.8302);
                N2_N    (0 -0.0194 0.0119 4.1055);
                O2_N    (0 -0.0179 0.0152 3.9996);
                N_N     (0 -0.0033 -0.0572 5.0452);
                N2_O    (0 -0.0139 -0.0825 4.5785);
                O2_O    (0 -0.0226 0.1300 3.3363);
                N_O     (0 0.0048 -0.4195 5.7774);
                O_O     (0 -0.0034 -0.0572 4.9901);
                N2_NO   (0 -0.0291 0.2324 3.2082);
                O2_NO   (0 -0.0438 0.5352 1.7252);
                NO_N    (0 -0.0185 0.0118 4.0590);
                NO_O    (0 -0.0179 0.0152 3.9996);
                NO_NO   (0 -0.0364 0.3825 2.4718);
                
                NO+_N2	(0 0 -0.4000 6.8543);
                NO+_O2  (0 0 -0.4000 6.8543);
                NO+_N		(0 0 -0.4000 6.8543);
                NO+_O		(0 0 -0.4000 6.8543);
                NO+_NO  (0 -0.0047 -0.0551 4.8737);
                NO+_NO+	(0 0 -2.0000 23.8237);
                e-_N2		(0.1147 -2.8945 24.5080 -67.3691);
                e-_O2   (0.0241 -0.3467 1.3887 -0.0110); // T = 1000-9000	K	
              //e-_O2		(0.0025 -0.0742 0.7235 -0.2116); // T = 9000-30000 K
                e-_N		(0 0 0 1.6094);
                e-_O    (0.0164 -0.2431 1.1231 -1.5561); // T = 1000-9000	K	
              //e-_O		(-0.2027 5.6428 -51.5646 155.6091); // T = 9000-30,000 K
                e-_NO   (-0.2202 5.2265 -40.5659 104.7126); // T = 1000-8000 K		
              //e-_NO		(-0.2871 8.3757 -81.3787 265.6292); // T = 8000-30,000 K
                e-_NO+	(0 0 -2.0000 23.8237);
                e-_e-		(0 0 -2.0000 23.8237);
                N+_N2		(0 0 -0.4000 6.8543);
                N+_O2		(0 0 -0.4000 6.8543);
                N+_N		(0 -0.0033 -0.0572 5.0452);
                N+_O		(0 0 -0.4000 6.8543);
                N+_NO		(0 0 -0.4000 6.8543);
                N+_NO+	(0 0 -2.0000 23.8237);
                N+_e-		(0 0 -2.0000 23.8237);
                N+_N+		(0 0 -2.0000 23.8237);
                O+_N2		(0 0 -0.4000 6.8543);
                O+_O2		(0 0 -0.4000 6.8543);
                O+_N		(0 0 -0.4000 6.8543);
                O+_O		(0 -0.0034 -0.0572 4.9901);
                O+_NO		(0 0 -0.4000 6.8543);
                O+_NO+	(0 0 -2.0000 23.8237);
                O+_e-		(0 0 -2.0000 23.8237);
                O+_N+		(0 0 -2.0000 23.8237);
                O+_O+		(0 0 -2.0000 23.8237);
                N2+_N2	(0 0 -0.4000 6.8543);
                N2+_O2	(0 0 -0.4000 6.8543);
                N2+_N		(0 0 -0.4000 6.8543);
                N2+_O		(0 0 -0.4000 6.8543);
                N2+_NO	(0 0 -0.4000 6.8543);
                N2+_NO+	(0 0 -2.0000 23.8237);
                N2+_e-	(0 0 -2.0000 23.8237);
                N2+_N+	(0 0 -2.0000 23.8237);
                N2+_O+	(0 0 -2.0000 23.8237);
                N2+_N2+	(0 0 -2.0000 23.8237);
                O2+_N2	(0 0 -0.4000 6.8543);
                O2+_O2	(0 0 -0.4000 6.8543);
                O2+_N		(0 0 -0.4000 6.8543);
                O2+_O		(0 0 -0.4000 6.8543);
                O2+_NO	(0 0 -0.4000 6.8543);
                O2+_NO+	(0 0 -2.0000 23.8237);
                O2+_e-	(0 0 -2.0000 23.8237);
                O2+_N+	(0 0 -2.0000 23.8237);
                O2+_O+	(0 0 -2.0000 23.8237);
                O2+_N2+	(0 0 -2.0000 23.8237);
                O2+_O2+	(0 0 -2.0000 23.8237);
            }
        
            // Table IX
            Omega22
            {
                N2_N2		(0 -0.0203 0.0683 4.0900);
                N2_O2		(0 -0.0558 0.7590 0.8955);
                O2_O2		(0 -0.0485 0.6475 1.2607);
                N2_N		(0 -0.0190 0.0239 4.1782);
                O2_N		(0 -0.0203 0.0730 3.8818);
                N_N		  (0 -0.0118 -0.0960 4.3252);
                N2_O		(0 -0.0169 -0.0143 4.4195);
                O2_O		(0 -0.0247 0.1783 3.2517);
                N_O		  (0 0.0065 -0.4467 6.0426);
                O_O		  (0 -0.0207 0.0780 3.5658);
                N2_NO		(0 -0.0385 0.4226 2.4507);
                O2_NO		(0 -0.0522 0.7045 1.0738);
                NO_N		(0 -0.0196 0.0478 4.0321);
                NO_O		(0 -0.0203 0.0730 3.8818);
                NO_NO		(0 -0.0453 0.5624 1.7669);
                NO+_N2	(0 0 -0.4000 6.7760);
                NO+_O2	(0 0 -0.4000 6.7760);
                NO+_N		(0 0 -0.4000 6.7760);
                NO+_O		(0 0 -0.4000 6.7760);
                NO+_NO	(0 0 -0.4000 6.7760);
                NO+_NO+	(0 0 -2.0000 24.3602);
                e-_N2		(0.1147 -2.8945 24.5080 -67.3691);
                e-_O2		(0.0241 -0.3467 1.3887 -0.0110); // T = 1000-9000	K	
              //e-_O2		(0.0025 -0.0742 0.7235 -0.2116); // T = 9000-30000 K
                e-_N		(0 0 0 1.6094);
                e-_O		(0.0164 -0.2431 1.1231 -1.5561); // T = 1000-9000	K	
              //e-_O		(-0.2027 5.6428 -51.5646 155.6091); // T = 9000-30,000 K
                e-_NO		(-0.2202 5.2265 -40.5659 104.7126); // T = 1000-8000 K		
              //e-_NO		(-0.2871 8.3757 -81.3787 265.6292); // T = 8000-30,000 K
                e-_NO+	(0 0 -2.0000 24.3602);
                e-_e-		(0 0 -2.0000 24.3602);
                N+_N2		(0 0 -0.4000 6.7760);
                N+_O2		(0 0 -0.4000 6.7760);
                N+_N		(0 0 -0.4146 6.9078);
                N+_O		(0 0 -0.4000 6.7760);
                N+_NO		(0 0 -0.4000 6.7760);
                N+_NO+	(0 0 -2.0000 24.3602);
                N+_e-		(0 0 -2.0000 24.3061);
                N+_N+		(0 0 -2.0000 24.3602);
                O+_N2		(0 0 -0.4000 6.7760);
                O+_O2		(0 0 -0.4000 6.7760);
                O+_N		(0 0 -0.4000 6.7760);
                O+_O		(0 0 -0.4235 6.7787);
                O+_NO		(0 0 -0.4000 6.7760);
                O+_NO+	(0 0 -2.0000 24.3602);
                O+_e-		(0 0 -2.0000 24.3061);
                O+_N+		(0 0 -2.0000 24.3602);
                O+_O+		(0 0 -2.0000 24.3602);
                N2+_N2	(0 0 -0.4000 6.7760);
                N2+_O2	(0 0 -0.4000 6.7760);
                N2+_N		(0 0 -0.4000 6.7760);
                N2+_O		(0 0 -0.4000 6.7760);
                N2+_NO	(0 0 -0.4000 6.7760);
                N2+_NO+	(0 0 -2.0000 24.3602);
                N2+_e-	(0 0 -2.0000 24.3061);
                N2+_N+	(0 0 -2.0000 24.3602);
                N2+_O+	(0 0 -2.0000 24.3602);
                N2+_N2+	(0 0 -2.0000 24.3602);
                O2+_N2	(0 0 -0.4000 6.7760);
                O2+_O2	(0 0 -0.4000 6.7760);
                O2+_N		(0 0 -0.4000 6.7760);
                O2+_O		(0 0 -0.4000 6.7760);
                O2+_NO	(0 0 -0.4000 6.7760);
                O2+_NO+	(0 0 -2.0000 24.3602);
                O2+_e-	(0 0 -2.0000 24.3061);
                O2+_N+	(0 0 -2.0000 24.3602);
                O2+_O+	(0 0 -2.0000 24.3602);
                O2+_N2+	(0 0 -2.0000 24.3602);
                O2+_O2+	(0 0 -2.0000 24.3602);
            }
        }
        
        // DOI: 102514/1.16713 (Wright, Bose, Palmer, Levin: Aug. 2005)
        // Recommended Collision Integrals for Transport Property Computations,
        // Part 1: Air Species, AIAA Journal, Vol. 43, No. 12
        //
        // As cited by:
        // AIAA 2007-605 (Hash et al.: Jan. 2007)
        // FIRE II Calculations for Hypersonic nonequilibrium Aerothermo-
        // dynamics Code verification: DPLR, LAURA, and US3D
        Wright2005O
        {
            // Hash et al. 2007, Table V
            Omega11
            {
                N2_N2   (-6.0614558e-03 1.2689102e-01 -1.0616948 6.6964843e00);
                N2_O2   (-3.7959091e-03 9.5708295e-02 -1.0070611 6.7956198e00);
                O2_O2   (-8.0682650e-04 1.6602480e-02 -3.1472774e-01 4.9499264e00);
                N2_N    (-1.0796249e-02 2.2656509e-01 -1.7910602 8.3053658e00);
                O2_N    (-1.1453028e-03 1.2654140e-02 -2.2435218e-01 4.3464200e00);
                N_N     (-9.6083779e-03 2.0938971e-01 -1.7386904 8.1193385e00);
                N2_O    (-2.7244269e-03 6.9587171e-02 -7.9538667e-01 6.0081675e00);
                O2_O    (-4.8405803e-03 1.0297688e-01 -9.6876576e-01 6.4237308e00);
                N_O     (-7.8147689e-03 1.6792705e-01 -1.4308628 7.4163099e00);
                O_O     (-6.4040535e-03 1.4629949e-01 -1.3892121 7.6450840e00);
                N2_NO   (-1.9295666e-03 2.7995735e-02 -3.1588514e-01 4.8583178e00);
                O2_NO   (-6.4433840e-04 8.5378580e-03 -2.3225102e-01 4.7337048e00);
                NO_N    (-1.5770918e-03 1.9578381e-02 -2.7873624e-01 4.6006394e00);
                NO_O    (-1.0885815e-03 1.1883688e-02 -2.1844909e-01 4.3242990e00);
                NO_NO   (0.0000000 -1.1056066e-02 -5.9216250e-02 4.2841708e00);
                
                N2_NO+  (0.0000000 9.1205839e-02 -1.8728231 1.2406235e01);
                O2_NO+  (-3.7822765e-03 1.7967016e-01 -2.5409098 1.3984446e01);
                N_NO+   (-1.9605234e-02 5.5570872e-01 -5.4285702 2.1028870e01);
                O_NO+   (-1.6409054e-02 4.6352852e-01 -4.5479735 1.8122957e01);
                NO_NO+  (-8.1158474e-03 2.1474280e-01 -2.0148450 1.1050674e01);
                e-_N2   (-1.0525124e-02 1.3498950e-01 1.2524805e-01 -1.8926961e00);
                e-_O2   (2.3527001e-02 -6.9632323e-01 6.8035475 -2.0117011e01);
                e-_N    (0.0000000 1.6554247e-01 -3.4986344 2.0200166e01);
                e-_O    (9.9865506e-03 -2.7407431e-01 2.6561032 -7.7498509e00);
                e-_NO   (1.0414818e-01 -2.8369126 2.5323135e01 -7.1639707e01);
                N2_N+   (-1.0687805e-02 2.4479697e-01 -2.3192863e00 1.1579577e01);
                O2_N+   (0.0000000e00 8.7745537e-02 -1.8347158e00 1.2197542e01);
                N_N+    (-4.0078980e-03 1.0327487e-01 -9.9473323e-01 7.9437220e00);
                O_N+    (-1.5767256e-02 3.5405830e-01 -3.0686783e00 1.3046276e01);
                NO_N+   (0.0000000e00 8.6531037e-02 -1.8117931e00 1.2134645e01);
                N2_O+   (1.0352091e-02 -1.5733723e-01 2.9326150e-02 7.6498648e00);
                O2_O+   (0.0000000e00 9.3559978e-02 -1.9842999e00 1.2973805e01);
                N_O+    (-2.4288224e-02 5.6305072e-01 -4.6849679e00 1.7122508e01);
                O_O+    (-3.8347988e-03 9.9930498e-02 -9.6288891e-01 7.5842596e00);
                NO_O+   (8.3856973e-03 -1.0972656e-01 -3.3896281e-01 8.5565041e00);
                N2_N2+  (-2.9123716e-03 9.6850678e-02 -1.1416540e00 8.9778050e00);
                O2_N2+  (-4.0893007e-03 1.7795266e-01 -2.3800543e00 1.3160609e01);
                N_N2+   (-1.4501284e-02 4.1085338e-01 -4.0115094e00 1.6571427e01);
                O_N2+   (-1.6923472e-02 4.6067692e-01 -4.3294966e00 1.7055714e01);
                NO_N2+  (-9.2292933e-03 2.9813226e-01 -3.2899475e00 1.5407742e01);
                N2_O2+  (1.2405624e-02 -2.0452111e-01 3.5478475e-01 6.9827103e00);
                O2_O2+  (-8.9520932e-03 2.2749642e-01 -2.0758341e00 1.1122464e01);
                N_O2+   (0.0000000e00 8.3065769e-02 -1.7501512e00 1.1594210e01);
                O_O2+   (-2.9417970e-03 1.5129273e-01 -2.2497964e00 1.2588788e01);
                NO_O2+  (1.3731123e-02 -2.3920299e-01 6.7093226e-01 5.9931813e00);
                
                // Wright et al. 2005, Table VI
                shieldedCoulombPotential
                {
                    attractive
                    {
                        c1  0.0313;
                        C1  -0.476;
                        D1  0.784;
                    }
                    repulsive
                    {
                        c1  0.0106;
                        C1  0.138;
                        D1  0.765;
                    }
                }
            }
        
            // Hash et al. 2007, Table VI
            Omega22
            {
                N2_N2   (-7.6303990e-03 1.6878089e-01 -1.4004234e00 7.6698550e00);
                N2_O2   (-8.0457321e-03 1.9228905e-01 -1.7102854e00 8.5605181e00);
                O2_O2   (-6.2931612e-03 1.4624645e-01 -1.3006927e00 7.4992513e00);
                N2_N    (-8.3493693e-03 1.7808911e-01 -1.4466155e00 7.5665289e00);
                O2_N    (-1.0608832e-03 1.1782595e-02 -2.1246301e-01 4.4374802e00);
                N_N     (-7.7439615e-03 1.7129007e-01 -1.4809088e00 7.6631705e00);
                N2_O    (-8.3110691e-03 1.9617877e-01 -1.7205427e00 8.3141667e00);
                O2_O    (-3.7969686e-03 7.6789981e-02 -7.3056809e-01 5.8277146e00);
                N_O     (-5.0478143e-03 1.0236186e-01 -9.0058935e-01 6.0974576e00);
                O_O     (-4.2451096e-03 9.6820337e-02 -9.9770795e-01 6.7252814e00);
                N2_NO   (-6.8237776e-03 1.4360616e-01 -1.1922240e00 7.1255313e00);
                O2_NO   (-6.8508672e-03 1.5524564e-01 -1.3479583e00 7.6027952e00);
                NO_N    (-1.4719259e-03 1.8446968e-02 -2.6460411e-01 4.6923679e00);
                NO_O    (-1.0066279e-03 1.1029264e-02 -2.0671266e-01 4.4145469e00);
                NO_NO   (-7.4942466e-03 1.6626193e-01 -1.4107027e00 7.7448991e00);
                
                N2_NO+  (0.0000000e00 8.5112236e-02 -1.7460044e00 1.1884418e01);
                O2_NO+  (0.0000000e00 8.4737359e-02 -1.7290488e00 1.1734884e01);
                N_NO+   (-2.1009546e-02 5.8910426e-01 -5.6681361e00 2.1618807e01);
                O_NO+   (-1.5315132e-02 4.3541627e-01 -4.2864279e00 1.7374430e01);
                NO_NO+  (1.1055777e-02 -1.6621846e-01 1.4372166e-01 7.1840271e00);
                e-_N2   (-4.2254948e-03 -5.2965163e-02 1.9157708e00 -7.3656199e00);
                e-_O2   (9.6744867e-03 -3.3759583e-01 3.7952121e00 -1.1891729e01);
                e-_N    (-1.0903638e-01 2.8678381e00 -2.5297550e01 7.7233455e01);
                e-_O    (-1.7924100e-02 4.0402656e-01 -2.6712374e00 6.0270167e00);
                e-_NO   (0.0000000e00 5.4444485e-02 -1.2854128e00 9.5365859e00);
                N2_N+   (-7.0776069e-03 1.7917938e-01 -1.9102410e00 1.0752276e01);
                O2_N+   (9.8019578e-03 -1.4699425e-01 3.9382460e-02 7.3206702e00);
                N_N+    (-1.4271306e-02 3.0401993e-01 -2.4573879e00 1.0891070e01);
                O_N+    (-1.7907392e-02 4.1207892e-01 -3.5343610e00 1.4220154e01);
                NO_N+   (1.1716366e-02 -1.9289789e-01 4.0269474e-01 6.4116802e00);
                N2_O+   (1.8733000e-02 -3.6163781e-01 1.6947101e00 3.2286225e00);
                O2_O+   (1.4207970e-02 -2.4736726e-01 7.4561859e-01 5.7844154e00);
                N_O+    (-2.1681211e-02 5.2300453e-01 -4.5118623e00 1.6971138e01);
                O_O+    (-1.6032919e-02 3.7114396e-01 -3.2050078e00 1.3272494e01);
                NO_O+   (1.8015337e-02 -3.4415293e-01 1.5658151e00 3.5056702e00);
                N2_N2+  (-1.6447237e-02 4.7759522e-01 -4.7641986e00 1.9489780e01);
                O2_N2+  (-4.9176811e-03 1.9694738e-01 -2.5025540e00 1.3432985e01);
                N_N2+   (-1.2882395e-02 3.7306469e-01 -3.7106760e00 1.5836329e01);
                O_N2+   (-1.7420606e-02 4.7126950e-01 -4.3841087e00 1.7157492e01);
                NO_N2+  (-4.0133981e-03 1.7290664e-01 -2.2855449e00 1.2805714e01);
                N2_O2+  (2.2455421e-02 -4.5106797e-01 2.3763420e00 1.5634923e00);
                O2_O2+  (2.8664463e-02 -5.8087240e-01 3.2564558e00 -4.0211431E-01);
                N_O2+   (1.1205000e-02 -1.8182149e-01 3.2624972e-01 6.3132977e00);
                O_O2+   (0.0000000e00 8.3446262e-02 -1.7191179e00 1.1296508e01);
                NO_O2+  (2.2679271e-02 -4.5710920e-01 2.4427275e00 1.3011044e00);
                
                // Wright et al. 2005, Table VI
                shieldedCoulombPotential
                {
                    attractive
                    {
                        c2  0.0377;
                        C2  -0.146;
                        D2  1.262;
                    }
                    repulsive
                    {
                        c2  0.0274;
                        C2  0.157;
                        D2  1.235;
                    }
                }
            }
        }
		// Is mixing a good idea? Nah thats ok
        // There are other interactions with argon that are not here, but Wright (2005) et al have described. Can use our linear solver for that
        // used tabled omega and temperature values to find fit coefficients (which equation??)
        // 
        // 
        // 
        // 
        // 
        WrightEarthMarsVenus
        {
            
            Omega11
            {
                N2_N2   (-6.0614558e-03 1.2689102e-01 -1.0616948 6.6964843e00);
                N2_O2   (-3.7959091e-03 9.5708295e-02 -1.0070611 6.7956198e00);
                O2_O2   (-8.0682650e-04 1.6602480e-02 -3.1472774e-01 4.9499264e00);
                N2_N    (-1.0796249e-02 2.2656509e-01 -1.7910602 8.3053658e00);
                O2_N    (-1.1453028e-03 1.2654140e-02 -2.2435218e-01 4.3464200e00);
                N_N     (-9.6083779e-03 2.0938971e-01 -1.7386904 8.1193385e00);
                N2_O    (-2.7244269e-03 6.9587171e-02 -7.9538667e-01 6.0081675e00);
                O2_O    (-4.8405803e-03 1.0297688e-01 -9.6876576e-01 6.4237308e00);
                N_O     (-7.8147689e-03 1.6792705e-01 -1.4308628 7.4163099e00);
                O_O     (-6.4040535e-03 1.4629949e-01 -1.3892121 7.6450840e00);
                N2_NO   (-1.9295666e-03 2.7995735e-02 -3.1588514e-01 4.8583178e00);
                O2_NO   (-6.4433840e-04 8.5378580e-03 -2.3225102e-01 4.7337048e00);
                NO_N    (-1.5770918e-03 1.9578381e-02 -2.7873624e-01 4.6006394e00);
                NO_O    (-1.0885815e-03 1.1883688e-02 -2.1844909e-01 4.3242990e00);
                NO_NO   (0.0000000 -1.1056066e-02 -5.9216250e-02 4.2841708e00);
                
                N2_NO+  (0.0000000 9.1205839e-02 -1.8728231 1.2406235e01);
                O2_NO+  (-3.7822765e-03 1.7967016e-01 -2.5409098 1.3984446e01);
                N_NO+   (-1.9605234e-02 5.5570872e-01 -5.4285702 2.1028870e01);
                O_NO+   (-1.6409054e-02 4.6352852e-01 -4.5479735 1.8122957e01);
                NO_NO+  (-8.1158474e-03 2.1474280e-01 -2.0148450 1.1050674e01);
                e-_N2   (-1.0525124e-02 1.3498950e-01 1.2524805e-01 -1.8926961e00);
                e-_O2   (2.3527001e-02 -6.9632323e-01 6.8035475 -2.0117011e01);
                e-_N    (0.0000000 1.6554247e-01 -3.4986344 2.0200166e01);
                e-_O    (9.9865506e-03 -2.7407431e-01 2.6561032 -7.7498509e00);
                e-_NO   (1.0414818e-01 -2.8369126 2.5323135e01 -7.1639707e01);
                N2_N+   (-1.0687805e-02 2.4479697e-01 -2.3192863e00 1.1579577e01);
                O2_N+   (0.0000000e00 8.7745537e-02 -1.8347158e00 1.2197542e01);
                N_N+    (-4.0078980e-03 1.0327487e-01 -9.9473323e-01 7.9437220e00);
                O_N+    (-1.5767256e-02 3.5405830e-01 -3.0686783e00 1.3046276e01);
                NO_N+   (0.0000000e00 8.6531037e-02 -1.8117931e00 1.2134645e01);
                N2_O+   (1.0352091e-02 -1.5733723e-01 2.9326150e-02 7.6498648e00);
                O2_O+   (0.0000000e00 9.3559978e-02 -1.9842999e00 1.2973805e01);
                N_O+    (-2.4288224e-02 5.6305072e-01 -4.6849679e00 1.7122508e01);
                O_O+    (-3.8347988e-03 9.9930498e-02 -9.6288891e-01 7.5842596e00);
                NO_O+   (8.3856973e-03 -1.0972656e-01 -3.3896281e-01 8.5565041e00);
                N2_N2+  (-2.9123716e-03 9.6850678e-02 -1.1416540e00 8.9778050e00);
                O2_N2+  (-4.0893007e-03 1.7795266e-01 -2.3800543e00 1.3160609e01);
                N_N2+   (-1.4501284e-02 4.1085338e-01 -4.0115094e00 1.6571427e01);
                O_N2+   (-1.6923472e-02 4.6067692e-01 -4.3294966e00 1.7055714e01);
                NO_N2+  (-9.2292933e-03 2.9813226e-01 -3.2899475e00 1.5407742e01);
                N2_O2+  (1.2405624e-02 -2.0452111e-01 3.5478475e-01 6.9827103e00);
                O2_O2+  (-8.9520932e-03 2.2749642e-01 -2.0758341e00 1.1122464e01);
                N_O2+   (0.0000000e00 8.3065769e-02 -1.7501512e00 1.1594210e01);
                O_O2+   (-2.9417970e-03 1.5129273e-01 -2.2497964e00 1.2588788e01);
                NO_O2+  (1.3731123e-02 -2.3920299e-01 6.7093226e-01 5.9931813e00);
                //End of the nitrogen/oxygen interactions
				
				//Start of the carbon interactions
				
				CO2_CO2   (-0.00176775 0.0507058 -0.641559 5.08974 )
				CO2_N2   (0.00572288 -0.151116 1.11032 0.031426 )
				CO2_O2   (0.00373585 -0.0927196 0.577317 1.53417 )
				CO2_CO   (7.42531e-05 -0.0210507 0.115701 2.55753 )
				CO2_NO   (0.0106465 -0.264491 1.9785 -2.20507 )
				CO2_CN (-0.00494517 0.106388 -0.954874 5.54379 )
				CO2_C (-0.0109282 0.246621 -2.06335 8.34064 )
				CO2_N (-0.00762227 0.178491 -1.57085 7.02904 )
				CO2_O (-0.00139441 0.0258233 -0.34598 3.71169 )
				N2_CO (0.00572288 -0.151116 1.11032 0.031426 )
				N2_CN (-0.000286293 -0.00876446 -0.0779628 3.28007 )
				N2_C   (-0.00887259 0.195509 -1.6668 7.33072 )
				O2_CO   (0.00912917 -0.233233 1.74052 -1.68929 )
				O2_CN   (-0.00528151 0.109482 -0.956696 5.27945 )
				O2_C   (0.0052875 -0.141991 1.01208 0.0168365 )
				CO_CO   (0.00426909 -0.134057 1.07506 -0.17174 )
				CO_NO   (-0.00085718 -0.0152384 0.153033 2.18794 )
				CO_CN   (-0.000334625 -0.0067322 -0.0589608 3.00559 )
				CO_C   (-0.00021541 -0.010333 -0.0487562 2.94467 )
				CO_N   (-0.020443 0.444352 -3.45294 11.4272 )
				CO_O   (0.00107046 -0.0384224 0.155329 2.25919 )
				NO_CN   (-0.00548335 0.115583 -1.03731 5.64815 )
				NO_C   (-0.00330789 0.0610684 -0.600578 4.25069 )
				CN_CN   (-0.00512343 0.103621 -0.932363 5.40294 )
				CN_C   (0.00615218 -0.158978 1.08416 0.0191138 )
				CN_N   (0.0007699 -0.0389704 0.167612 2.43446 )
				CN_O   (0.00170765 -0.0540814 0.288857 1.923 )
				C_C   (-0.0194203 0.434533 -3.51461 12.1034 )
				C_N   (-0.00568452 0.104077 -0.803571 4.31932 )
				C_O   (0.0255564 -0.693435 5.88149 -13.9947 )
				C_N+   (-0.0118972 0.394598 -4.42461 18.2827 )
				C_O+   (-0.00606839 0.261577 -3.46514 16.0723 )
				C_C+   (-0.0018112 0.0550958 -0.66709 6.2877 )
				O2_C+   (-0.0193921 0.563974 -5.66309 21.178 )
				CO_N+   (-0.00417213 0.21889 -3.14761 15.3578 )
				CO_O+   (0.00573788 -0.0118883 -1.41018 11.0995 )
				CO_C+   (-0.0110079 0.372885 -4.25437 17.9195 )
				CO_CO+   (-0.00767592 0.21856 -2.16786 10.425 )
				N_C+   (0.0371223 -0.834356 5.92549 -11.0524 )
				O_C+   (-0.356232 8.29194 -64.4255 169.019 )
				CN_CN+   (-0.00788243 0.223848 -2.21478 10.5704 )
				e-_CO2   (0.157592 -3.58992 26.1199 -58.8119 )
				e-_CO   (-0.11862 2.71926 -20.2868 50.7193 )
				e-_CN   (-0.11862 2.71926 -20.2868 50.7193 )
				e-_C   (-0.0169481 0.192431 -0.205988 0 )
				
				
				
                // Wright et al. 2005, Table VI
                shieldedCoulombPotential
                {
                    attractive
                    {
                        c1  0.0313;
                        C1  -0.476;
                        D1  0.784;
                    }
                    repulsive
                    {
                        c1  0.0106;
                        C1  0.138;
                        D1  0.765;
                    }
                }
            }
        
            
            Omega22
            {
                N2_N2   (-7.6303990e-03 1.6878089e-01 -1.4004234e00 7.6698550e00);
                N2_O2   (-8.0457321e-03 1.9228905e-01 -1.7102854e00 8.5605181e00);
                O2_O2   (-6.2931612e-03 1.4624645e-01 -1.3006927e00 7.4992513e00);
                N2_N    (-8.3493693e-03 1.7808911e-01 -1.4466155e00 7.5665289e00);
                O2_N    (-1.0608832e-03 1.1782595e-02 -2.1246301e-01 4.4374802e00);
                N_N     (-7.7439615e-03 1.7129007e-01 -1.4809088e00 7.6631705e00);
                N2_O    (-8.3110691e-03 1.9617877e-01 -1.7205427e00 8.3141667e00);
                O2_O    (-3.7969686e-03 7.6789981e-02 -7.3056809e-01 5.8277146e00);
                N_O     (-5.0478143e-03 1.0236186e-01 -9.0058935e-01 6.0974576e00);
                O_O     (-4.2451096e-03 9.6820337e-02 -9.9770795e-01 6.7252814e00);
                N2_NO   (-6.8237776e-03 1.4360616e-01 -1.1922240e00 7.1255313e00);
                O2_NO   (-6.8508672e-03 1.5524564e-01 -1.3479583e00 7.6027952e00);
                NO_N    (-1.4719259e-03 1.8446968e-02 -2.6460411e-01 4.6923679e00);
                NO_O    (-1.0066279e-03 1.1029264e-02 -2.0671266e-01 4.4145469e00);
                NO_NO   (-7.4942466e-03 1.6626193e-01 -1.4107027e00 7.7448991e00);
                
                N2_NO+  (0.0000000e00 8.5112236e-02 -1.7460044e00 1.1884418e01);
                O2_NO+  (0.0000000e00 8.4737359e-02 -1.7290488e00 1.1734884e01);
                N_NO+   (-2.1009546e-02 5.8910426e-01 -5.6681361e00 2.1618807e01);
                O_NO+   (-1.5315132e-02 4.3541627e-01 -4.2864279e00 1.7374430e01);
                NO_NO+  (1.1055777e-02 -1.6621846e-01 1.4372166e-01 7.1840271e00);
                e-_N2   (-4.2254948e-03 -5.2965163e-02 1.9157708e00 -7.3656199e00);
                e-_O2   (9.6744867e-03 -3.3759583e-01 3.7952121e00 -1.1891729e01);
                e-_N    (-1.0903638e-01 2.8678381e00 -2.5297550e01 7.7233455e01);
                e-_O    (-1.7924100e-02 4.0402656e-01 -2.6712374e00 6.0270167e00);
                e-_NO   (0.0000000e00 5.4444485e-02 -1.2854128e00 9.5365859e00);
                N2_N+   (-7.0776069e-03 1.7917938e-01 -1.9102410e00 1.0752276e01);
                O2_N+   (9.8019578e-03 -1.4699425e-01 3.9382460e-02 7.3206702e00);
                N_N+    (-1.4271306e-02 3.0401993e-01 -2.4573879e00 1.0891070e01);
                O_N+    (-1.7907392e-02 4.1207892e-01 -3.5343610e00 1.4220154e01);
                NO_N+   (1.1716366e-02 -1.9289789e-01 4.0269474e-01 6.4116802e00);
                N2_O+   (1.8733000e-02 -3.6163781e-01 1.6947101e00 3.2286225e00);
                O2_O+   (1.4207970e-02 -2.4736726e-01 7.4561859e-01 5.7844154e00);
                N_O+    (-2.1681211e-02 5.2300453e-01 -4.5118623e00 1.6971138e01);
                O_O+    (-1.6032919e-02 3.7114396e-01 -3.2050078e00 1.3272494e01);
                NO_O+   (1.8015337e-02 -3.4415293e-01 1.5658151e00 3.5056702e00);
                N2_N2+  (-1.6447237e-02 4.7759522e-01 -4.7641986e00 1.9489780e01);
                O2_N2+  (-4.9176811e-03 1.9694738e-01 -2.5025540e00 1.3432985e01);
                N_N2+   (-1.2882395e-02 3.7306469e-01 -3.7106760e00 1.5836329e01);
                O_N2+   (-1.7420606e-02 4.7126950e-01 -4.3841087e00 1.7157492e01);
                NO_N2+  (-4.0133981e-03 1.7290664e-01 -2.2855449e00 1.2805714e01);
                N2_O2+  (2.2455421e-02 -4.5106797e-01 2.3763420e00 1.5634923e00);
                O2_O2+  (2.8664463e-02 -5.8087240e-01 3.2564558e00 -4.0211431E-01);
                N_O2+   (1.1205000e-02 -1.8182149e-01 3.2624972e-01 6.3132977e00);
                O_O2+   (0.0000000e00 8.3446262e-02 -1.7191179e00 1.1296508e01);
                NO_O2+  (2.2679271e-02 -4.5710920e-01 2.4427275e00 1.3011044e00);
				//End of the nitrogen/oxygen interactions
				
				//Start of the carbon interactions
				CO2_CO2    (-0.0143791 0.35023 -2.99763 11.3432 )
				CO2_N2   (-0.00649201 0.137309 -1.13011 5.8818 )
				CO2_O2    (-0.011206 0.258484 -2.14481 8.61518 )
				CO2_CO   (-0.0114022 0.250371 -1.99469 8.07765 )
				CO2_NO  (-0.0136677 0.311685 -2.52954 9.56719 )
				CO2_CN   (-0.00848548 0.188392 -1.5749 7.22331 )
				CO2_C    (-0.0101996 0.224094 -1.83057 7.7101 )
				CO2_N    (-0.000212318 0.00565671 -0.212434 3.55701 )
				CO2_O    (-0.00376895 0.0797369 -0.737938 4.76393 )
				N2_CO    (0.00388426 -0.127651 1.06258 -0.148722 )
				N2_CN    (-0.0072981 0.153284 -1.30618 6.51475 )
				N2_C    (0.00618976 -0.154351 1.04638 0.417227 )
				O2_CO    (0.000899389 -0.0467355 0.369033 1.71172 )
				O2_CN    (-0.00449987 0.0912597 -0.803686 4.98484 )
				O2_C    (0.00187052 -0.0581443 0.345827 1.89845 )
				CO_CO    (0.00388426 -0.127651 1.06258 -0.148722 )
				CO_NO    (-0.00283059 0.0328799 -0.199058 3.08859 )
				CO_CN   (0.000385324 -0.0220664 0.0609604 2.82722 )
				CO_C    (-0.00796519 0.169484 -1.41815 6.53938 )
				CO_N    (4.58074e-05 -0.0208855 0.0968356 2.493 )
				CO_O    (0.000255811 -0.0181467 0.00626424 2.74787 )
				NO_CN    (-0.000763933 0.00701418 -0.194093 3.60828 )
				NO_C    (0.000992969 -0.0348253 0.123317 2.57448 )
				CN_CN    (-0.0003337 -0.00388507 -0.116408 3.48366 )
				CN_C   (-0.000321131 -0.00831092 -0.0643662 3.07051 )
				CN_N    (-0.00266629 0.0407495 -0.429045 4.06834 )
				CN_O    (-0.00127373 0.0150576 -0.230173 3.35438 )
				C_C    (0.0184339 -0.434343 3.10837 -4.57749 )
				C_N    (0.0181838 -0.42775 3.11237 -5.09023 )
				C_O    (0.00419772 -0.145903 1.25689 -1.01308 )
				C_N+    (-0.0016302 0.16924 -2.78802 14.4531 )
				C_O+    (0.0154228 -0.226756 0.218365 6.95659 )
				C_C+    (-0.00956686 0.349953 -4.10976 17.5912 )
				O2_C+    (-0.00981529 0.356732 -4.17879 17.7656 )
				CO_N+    (0.00808118 -0.0555084 -1.10613 10.422 )
				CO_O+    (0.0208716 -0.356862 1.20594 4.61386 )
				CO_C+    (-0.000765346 0.148854 -2.63158 14.1347 )
				CO_CO+    (0.000370804 -0.00862284 -0.433364 6.31101 )
				N_C+    (-0.0244723 0.681999 -6.48735 22.8306 )
				O_C+    (-0.0294212 0.779886 -7.07189 23.6621 )
				CN_CN+    (0.00221041 -0.0509377 -0.110173 5.50424 )
				e-_CO2    (0.302558 -6.85675 50.6112 -120.282 )
				e-_CO    (-0.237197 5.49619 -41.7758 105.578 )
				e-_CN    (-0.237197 5.49619 -41.7758 105.578 )
				e-_C    (0.012626 -0.287762 1.74485 0 )
				
				
				//ion/electron interaction coefficients??
                shieldedCoulombPotential
                {
                    attractive
                    {
                        c2  0.0377;
                        C2  -0.146;
                        D2  1.262;
                    }
                    repulsive
                    {
                        c2  0.0274;
                        C2  0.157;
                        D2  1.235;
                    }
                }
            }
        }
    }
}
